Version 4
SHEET 1 1896 880
WIRE -288 -80 -304 -80
WIRE 432 16 336 16
WIRE 544 16 512 16
WIRE 576 16 544 16
WIRE 720 16 656 16
WIRE -288 32 -304 32
WIRE 544 48 544 16
WIRE -16 208 -32 208
WIRE 112 208 64 208
WIRE -208 240 -320 240
WIRE -64 240 -128 240
WIRE 432 240 416 240
WIRE 560 240 512 240
WIRE -208 352 -304 352
WIRE -64 352 -64 240
WIRE -64 352 -128 352
WIRE -32 352 -32 208
WIRE -32 352 -64 352
WIRE -16 352 -32 352
WIRE 112 368 112 208
WIRE 112 368 48 368
WIRE 208 368 112 368
WIRE 288 368 208 368
WIRE 416 368 416 240
WIRE 416 368 368 368
WIRE 432 368 416 368
WIRE -16 384 -32 384
WIRE 560 384 560 240
WIRE 560 384 496 384
WIRE 720 384 560 384
WIRE 432 400 416 400
WIRE 1584 496 1392 496
WIRE 656 512 464 512
WIRE 48 544 -144 544
WIRE 464 608 464 512
WIRE 496 608 464 608
WIRE 1392 608 1392 496
WIRE 1424 608 1392 608
WIRE -144 624 -144 544
WIRE -112 624 -144 624
WIRE 656 624 656 512
WIRE 656 624 560 624
WIRE 816 624 656 624
WIRE 1584 624 1584 496
WIRE 1584 624 1488 624
WIRE 1664 624 1584 624
WIRE 48 640 48 544
WIRE 48 640 -48 640
WIRE 128 640 48 640
WIRE 240 640 208 640
WIRE 272 640 240 640
WIRE 384 640 352 640
WIRE 496 640 384 640
WIRE 944 640 880 640
WIRE 1056 640 944 640
WIRE 1168 640 1136 640
WIRE 1200 640 1168 640
WIRE 1312 640 1280 640
WIRE 1424 640 1312 640
WIRE -464 656 -624 656
WIRE -368 656 -400 656
WIRE -336 656 -368 656
WIRE -224 656 -272 656
WIRE -112 656 -224 656
WIRE 816 656 784 656
WIRE 384 672 384 640
WIRE 1312 672 1312 640
WIRE -224 688 -224 656
WIRE 384 752 384 736
WIRE 784 768 784 656
WIRE 944 768 944 640
WIRE 944 768 784 768
WIRE 1312 768 1312 736
WIRE 240 784 240 640
WIRE 464 784 240 784
WIRE 656 784 656 624
WIRE 656 784 528 784
WIRE 1168 784 1168 640
WIRE 1392 784 1168 784
WIRE 1584 784 1584 624
WIRE 1584 784 1456 784
WIRE -224 800 -224 768
WIRE -368 832 -368 656
WIRE -160 832 -368 832
WIRE 48 832 48 640
WIRE 48 832 -80 832
FLAG -304 -80 0
FLAG 720 16 Vcc
FLAG 336 16 Vee
FLAG 544 48 0
FLAG 16 400 Vee
FLAG 16 336 Vcc
FLAG -32 384 0
FLAG -304 32 0
FLAG 464 416 Vee
FLAG 464 352 Vcc
FLAG 416 400 0
FLAG -208 -80 AWGNoise
IOPIN -208 -80 Out
FLAG -208 32 InputSignal
IOPIN -208 32 Out
FLAG -320 240 AWGNoise
IOPIN -320 240 In
FLAG -304 352 InputSignal
IOPIN -304 352 In
FLAG 208 368 Vsum
FLAG 720 384 Vnoise+sig
IOPIN 720 384 Out
FLAG -80 608 Vcc
FLAG -80 672 Vee
FLAG -224 800 0
FLAG 528 592 Vcc
FLAG 528 656 Vee
FLAG 1456 592 Vcc
FLAG 1456 656 Vee
FLAG 848 672 Vcc
FLAG 848 608 Vee
FLAG 384 752 0
FLAG 1312 768 0
FLAG 1664 624 ChannelOutput
IOPIN 1664 624 Out
FLAG -624 656 Vnoise+sig
IOPIN -624 656 In
SYMBOL bv -192 -80 R90
WINDOW 3 -73 37 VTop 2
WINDOW 0 9 202 VBottom 2
SYMATTR Value V=(10*white(2e6*time*100)/10)
SYMATTR InstName AWGnoise1
SYMBOL battery 528 16 R90
WINDOW 0 -32 56 VBottom 2
WINDOW 3 32 56 VTop 2
WINDOW 123 0 0 Left 0
WINDOW 39 0 0 Left 0
SYMATTR InstName V1
SYMATTR Value 12
SYMBOL battery 672 16 R90
WINDOW 0 -32 56 VBottom 2
WINDOW 3 32 56 VTop 2
WINDOW 123 0 0 Left 0
WINDOW 39 0 0 Left 0
SYMATTR InstName V2
SYMATTR Value 12
SYMBOL AD549 16 304 R0
SYMATTR InstName U1
SYMBOL res 80 192 R90
WINDOW 0 0 56 VBottom 2
WINDOW 3 32 56 VTop 2
SYMATTR InstName R1
SYMATTR Value 1Meg
SYMBOL res -112 224 R90
WINDOW 0 0 56 VBottom 2
WINDOW 3 32 56 VTop 2
SYMATTR InstName R2
SYMATTR Value 1Meg
SYMBOL res -112 336 R90
WINDOW 0 0 56 VBottom 2
WINDOW 3 32 56 VTop 2
SYMATTR InstName R3
SYMATTR Value 1Meg
SYMBOL voltage -192 32 R90
WINDOW 123 25 127 VRight 2
WINDOW 39 0 0 Left 0
WINDOW 0 -3 127 VRight 2
WINDOW 3 53 127 VRight 2
SYMATTR Value2 AC 1
SYMATTR InstName signal1
SYMATTR Value SINE(0 1.65 2k 0 0 0 10)
SYMBOL AD549 464 320 R0
SYMATTR InstName U2
SYMBOL res 528 224 R90
WINDOW 0 0 56 VBottom 2
WINDOW 3 32 56 VTop 2
SYMATTR InstName R4
SYMATTR Value 100k
SYMBOL res 384 352 R90
WINDOW 0 0 56 VBottom 2
WINDOW 3 32 56 VTop 2
SYMATTR InstName R5
SYMATTR Value 100k
SYMBOL AD549 -80 576 R0
SYMATTR InstName U3
SYMBOL cap -400 640 R90
WINDOW 0 0 32 VBottom 2
WINDOW 3 32 32 VTop 2
SYMATTR InstName C1
SYMATTR Value 1µ
SYMBOL cap -272 640 R90
WINDOW 0 0 32 VBottom 2
WINDOW 3 32 32 VTop 2
SYMATTR InstName C2
SYMATTR Value 1µ
SYMBOL res -64 816 R90
WINDOW 0 0 56 VBottom 2
WINDOW 3 32 56 VTop 2
SYMATTR InstName R6
SYMATTR Value 10k
SYMBOL res -208 784 R180
WINDOW 0 36 76 Left 2
WINDOW 3 36 40 Left 2
SYMATTR InstName R7
SYMATTR Value 10k
SYMBOL AD549 528 560 R0
SYMATTR InstName U4
SYMBOL res 224 624 R90
WINDOW 0 0 56 VBottom 2
WINDOW 3 32 56 VTop 2
SYMATTR InstName R8
SYMATTR Value 3.18K
SYMBOL res 368 624 R90
WINDOW 0 0 56 VBottom 2
WINDOW 3 32 56 VTop 2
SYMATTR InstName R9
SYMATTR Value 3.18K
SYMBOL cap 368 672 R0
SYMATTR InstName C3
SYMATTR Value 10n
SYMBOL cap 528 768 R90
WINDOW 0 0 32 VBottom 2
WINDOW 3 32 32 VTop 2
SYMATTR InstName C4
SYMATTR Value 10n
SYMBOL AD549 1456 560 R0
SYMATTR InstName U5
SYMBOL res 1152 624 R90
WINDOW 0 0 56 VBottom 2
WINDOW 3 32 56 VTop 2
SYMATTR InstName R10
SYMATTR Value 3.18K
SYMBOL res 1296 624 R90
WINDOW 0 0 56 VBottom 2
WINDOW 3 32 56 VTop 2
SYMATTR InstName R11
SYMATTR Value 3.18K
SYMBOL cap 1296 672 R0
SYMATTR InstName C5
SYMATTR Value 10n
SYMBOL cap 1456 768 R90
WINDOW 0 0 32 VBottom 2
WINDOW 3 32 32 VTop 2
SYMATTR InstName C6
SYMATTR Value 10n
SYMBOL AD549 848 704 M180
SYMATTR InstName U6
TEXT 216 -256 Left 2 !;tran 0 0.001 0 0.01
TEXT 216 -216 Left 2 !.ac lin 100 10 6k
TEXT 472 -256 Left 2 ;time analysis
TEXT 472 -216 Left 2 ;frequency response
