Version 4
SHEET 1 1140 680
WIRE -768 -336 -832 -336
WIRE -656 -336 -688 -336
WIRE 208 -80 32 -80
WIRE 32 0 32 -80
WIRE 96 0 32 0
WIRE 208 16 208 -80
WIRE 208 16 160 16
WIRE 240 16 208 16
WIRE 352 16 320 16
WIRE 96 32 -144 32
WIRE -256 112 -304 112
WIRE -144 112 -144 32
WIRE -144 112 -176 112
WIRE -64 112 -144 112
WIRE 640 112 624 112
WIRE 768 112 720 112
WIRE 624 192 624 112
WIRE 624 192 528 192
WIRE 640 192 624 192
WIRE 768 208 768 112
WIRE 768 208 704 208
WIRE 848 208 768 208
WIRE -80 224 -224 224
WIRE 352 224 352 16
WIRE 352 224 0 224
WIRE 640 224 352 224
FLAG -672 -464 0
FLAG 16 112 0
FLAG -832 -336 0
FLAG 128 -16 5V
FLAG 128 48 0
FLAG -160 -352 0
FLAG -160 -432 5V
FLAG 672 176 5V
FLAG 672 240 0
FLAG 448 192 0
FLAG -592 -464 3.3V
IOPIN -592 -464 Out
FLAG -304 112 3.3V
IOPIN -304 112 In
FLAG -656 -336 ChannelOutput
IOPIN -656 -336 Out
FLAG -224 224 ChannelOutput
IOPIN -224 224 In
FLAG 848 208 BiasAdded
IOPIN 848 208 Out
SYMBOL voltage -576 -464 R90
WINDOW 123 0 0 Left 0
WINDOW 39 0 0 Left 0
SYMATTR InstName V1
SYMATTR Value 3.3
SYMBOL res -160 96 R90
WINDOW 0 0 56 VBottom 2
WINDOW 3 32 56 VTop 2
SYMATTR InstName R3
SYMATTR Value 50k
SYMBOL res 32 96 R90
WINDOW 0 0 56 VBottom 2
WINDOW 3 32 56 VTop 2
SYMATTR InstName R4
SYMATTR Value 50k
SYMBOL res 336 0 R90
WINDOW 0 0 56 VBottom 2
WINDOW 3 32 56 VTop 2
SYMATTR InstName R6
SYMATTR Value 1Meg
SYMBOL res 16 208 R90
WINDOW 0 0 56 VBottom 2
WINDOW 3 32 56 VTop 2
SYMATTR InstName R7
SYMATTR Value 1Meg
SYMBOL voltage -672 -336 R90
WINDOW 123 24 124 Left 2
WINDOW 39 0 0 Left 0
WINDOW 3 159 58 Bottom 2
SYMATTR Value2 AC 10
SYMATTR Value SINE(0 1.65 10000)
SYMATTR InstName V2
SYMBOL OpAmps/OP727 128 -48 R0
SYMATTR InstName U3
SYMBOL voltage -160 -448 R0
WINDOW 123 0 0 Left 0
WINDOW 39 0 0 Left 0
SYMATTR InstName V3
SYMATTR Value 10
SYMBOL res 736 96 R90
WINDOW 0 0 56 VBottom 2
WINDOW 3 32 56 VTop 2
SYMATTR InstName R8
SYMATTR Value 1k
SYMBOL res 544 176 R90
WINDOW 0 0 56 VBottom 2
WINDOW 3 32 56 VTop 2
SYMATTR InstName R9
SYMATTR Value 1k
SYMBOL OpAmps/OP727 672 144 R0
SYMATTR InstName U4
TEXT 368 296 Left 2 !.tran 0 0.001 0 0.01
