Version 4
SHEET 1 1828 1020
WIRE 816 224 688 224
WIRE 688 256 688 224
WIRE 720 256 688 256
WIRE 816 272 816 224
WIRE 816 272 784 272
WIRE 912 272 816 272
WIRE 352 288 272 288
WIRE 512 288 512 272
WIRE 512 288 432 288
WIRE 592 288 512 288
WIRE 720 288 672 288
WIRE 512 320 512 288
WIRE 192 512 -80 512
WIRE 336 512 272 512
WIRE 192 560 64 560
WIRE 336 560 336 512
WIRE 336 560 272 560
WIRE 560 560 336 560
WIRE 688 576 624 576
WIRE 912 576 688 576
WIRE 1072 576 1072 544
WIRE 1072 576 992 576
WIRE 1168 576 1072 576
WIRE 1376 576 1248 576
WIRE 544 592 448 592
WIRE 560 592 544 592
WIRE 1472 592 1440 592
WIRE 1536 592 1472 592
WIRE 1072 608 1072 576
WIRE 1376 608 1328 608
WIRE -272 624 -304 624
WIRE -160 624 -192 624
WIRE -112 624 -160 624
WIRE 0 624 -32 624
WIRE 544 672 544 592
WIRE 560 672 544 672
WIRE 688 672 688 576
WIRE 688 672 640 672
WIRE 1328 672 1328 608
WIRE 1472 672 1472 592
WIRE 1472 672 1328 672
WIRE -160 704 -160 624
WIRE 64 704 64 560
WIRE 64 704 -160 704
WIRE 80 704 64 704
WIRE 192 720 144 720
WIRE 80 736 16 736
WIRE 16 816 16 736
WIRE 192 816 192 720
WIRE 192 816 16 816
FLAG 400 32 0
FLAG 512 384 0
FLAG 512 208 3.3V
FLAG 208 -48 3.3V
FLAG 208 32 0
FLAG 272 288 DAC
IOPIN 272 288 In
FLAG 96 32 0
FLAG 96 -48 5V
FLAG 752 240 5V
FLAG 752 304 0
FLAG 400 -48 ChannelOutput
FLAG -176 -32 DAC
FLAG -176 48 0
FLAG 1408 624 5V
FLAG 1408 560 0
FLAG 1072 480 3.3V
FLAG 1072 672 0
FLAG 0 624 0
FLAG -80 512 Channel
IOPIN -80 512 In
FLAG 112 752 5V
FLAG 112 688 0
FLAG 592 608 5V
FLAG 592 544 0
FLAG 368 592 0
FLAG -304 624 3.3V
FLAG 1536 592 ADC
IOPIN 1536 592 Out
FLAG 912 272 Channel
IOPIN 912 272 Out
SYMBOL schottky 528 384 R180
WINDOW 0 24 64 Left 2
WINDOW 3 24 0 Left 2
SYMATTR InstName D1
SYMATTR Value 1N5817
SYMBOL schottky 528 272 R180
WINDOW 0 24 64 Left 2
WINDOW 3 24 0 Left 2
SYMATTR InstName D2
SYMATTR Value 1N5817
SYMBOL Voltage 400 -64 R0
SYMATTR InstName V1
SYMATTR Value SINE(0 1.65 100 0 0 0 10\)
SYMBOL voltage 208 -64 R0
SYMATTR InstName V2
SYMATTR Value 3.3
SYMBOL Res 448 272 R90
WINDOW 0 0 56 VBottom 2
WINDOW 3 32 56 VTop 2
SYMATTR InstName R1
SYMATTR Value 1k
SYMBOL Res 688 272 R90
WINDOW 0 0 56 VBottom 2
WINDOW 3 32 56 VTop 2
SYMATTR InstName R2
SYMATTR Value 1k
SYMBOL voltage 96 -64 R0
SYMATTR InstName V3
SYMATTR Value 5
SYMBOL Voltage -176 -48 R0
WINDOW 3 8 55 Left 2
SYMATTR Value SINE(1.5 1.5 100)
SYMATTR InstName V4
SYMBOL Res 1152 560 M90
WINDOW 0 0 56 VBottom 2
WINDOW 3 32 56 VTop 2
SYMATTR InstName R3
SYMATTR Value 1k
SYMBOL schottky 1056 544 M180
WINDOW 0 24 64 Left 2
WINDOW 3 24 0 Left 2
SYMATTR InstName D3
SYMATTR Value 1N5817
SYMBOL schottky 1056 672 M180
WINDOW 0 24 64 Left 2
WINDOW 3 24 0 Left 2
SYMATTR InstName D4
SYMATTR Value 1N5817
SYMBOL Res 896 560 M90
WINDOW 0 0 56 VBottom 2
WINDOW 3 32 56 VTop 2
SYMATTR InstName R4
SYMATTR Value 1k
SYMBOL OpAmps/OP291 1408 656 M180
SYMATTR InstName U1
SYMBOL OpAmps/OP291 752 208 R0
SYMATTR InstName U2
SYMBOL res -176 640 M270
WINDOW 0 32 56 VTop 2
WINDOW 3 0 56 VBottom 2
SYMATTR InstName R5
SYMATTR Value 50k
SYMBOL res -16 640 M270
WINDOW 0 32 56 VTop 2
WINDOW 3 0 56 VBottom 2
SYMATTR InstName R6
SYMATTR Value 50k
SYMBOL res 288 576 M270
WINDOW 0 -21 56 VTop 2
WINDOW 3 -16 55 VBottom 2
SYMATTR InstName R7
SYMATTR Value 1Meg
SYMBOL res 288 528 M270
WINDOW 0 61 56 VTop 2
WINDOW 3 59 57 VBottom 2
SYMATTR InstName R8
SYMATTR Value 1Meg
SYMBOL res 656 688 M270
WINDOW 0 -22 47 VTop 2
WINDOW 3 -15 45 VBottom 2
SYMATTR InstName R9
SYMATTR Value 1k
SYMBOL res 464 608 M270
WINDOW 0 -25 51 VTop 2
WINDOW 3 -21 51 VBottom 2
SYMATTR InstName R10
SYMATTR Value 1k
SYMBOL OpAmps/OP291 592 640 M180
SYMATTR InstName U3
SYMBOL OpAmps/OP291 112 784 M180
SYMATTR InstName U4
TEXT 984 -16 Left 2 !.tran 100ms
TEXT 584 176 Left 2 ;Protection circuits
TEXT 472 752 Right 2 ;DC bias adder
TEXT 1048 736 Left 2 ;Protection circuits
