Version 4
SHEET 1 3692 964
WIRE 784 240 656 240
WIRE 496 256 496 224
WIRE 656 304 656 240
WIRE 688 304 656 304
WIRE 784 320 784 240
WIRE 784 320 752 320
WIRE 880 320 784 320
WIRE 320 336 240 336
WIRE 496 336 496 320
WIRE 496 336 400 336
WIRE 560 336 496 336
WIRE 688 336 640 336
WIRE 496 368 496 336
WIRE 496 464 496 432
WIRE 624 816 624 736
WIRE 704 832 656 832
WIRE 816 832 816 800
WIRE 816 832 784 832
WIRE 912 832 816 832
WIRE 1216 832 992 832
WIRE 448 848 240 848
WIRE 592 848 448 848
WIRE 704 864 656 864
WIRE 816 880 816 832
WIRE 448 928 448 848
WIRE 704 928 704 864
WIRE 704 928 448 928
FLAG 768 80 0
FLAG 496 464 0
FLAG 496 224 3.3V
FLAG 576 0 3.3V
FLAG 576 80 0
FLAG 240 848 ADC
FLAG 464 80 0
FLAG 464 0 5V
FLAG 720 288 5V
FLAG 720 352 0
FLAG 816 736 3.3V
FLAG 816 944 0
FLAG 624 880 5V
FLAG 624 736 0
FLAG 768 0 noise
FLAG 1216 832 noise
FLAG 192 16 DAC
FLAG 192 96 0
FLAG 240 336 DAC
IOPIN 240 336 In
FLAG 880 320 ProtectionOut
IOPIN 880 320 Out
SYMBOL schottky 512 432 R180
WINDOW 0 24 64 Left 2
WINDOW 3 24 0 Left 2
SYMATTR InstName D2
SYMATTR Value 1N5817
SYMBOL schottky 512 320 R180
WINDOW 0 24 64 Left 2
WINDOW 3 24 0 Left 2
SYMATTR InstName D3
SYMATTR Value 1N5817
SYMBOL Voltage 768 -16 R0
WINDOW 123 0 0 Left 0
WINDOW 39 0 0 Left 0
SYMATTR InstName V1
SYMATTR Value SINE(0 3 100 0 0 0 10\)
SYMBOL voltage 576 -16 R0
SYMATTR InstName V2
SYMATTR Value 3.3
SYMBOL Res 416 320 R90
WINDOW 0 0 56 VBottom 2
WINDOW 3 32 56 VTop 2
SYMATTR InstName R1
SYMATTR Value 1k
SYMBOL Res 656 320 R90
WINDOW 0 0 56 VBottom 2
WINDOW 3 32 56 VTop 2
SYMATTR InstName R2
SYMATTR Value 1k
SYMBOL voltage 464 -16 R0
WINDOW 123 0 0 Left 0
WINDOW 39 0 0 Left 0
SYMATTR InstName V4
SYMATTR Value 10
SYMBOL OpAmps/OP727 720 256 R0
SYMATTR InstName U1
SYMBOL schottky 832 800 R180
WINDOW 0 24 64 Left 2
WINDOW 3 24 0 Left 2
SYMATTR InstName D1
SYMATTR Value 1N5817
SYMBOL schottky 832 944 R180
WINDOW 0 24 64 Left 2
WINDOW 3 24 0 Left 2
SYMATTR InstName D4
SYMATTR Value 1N5817
SYMBOL OpAmps/OP727 624 912 R180
SYMATTR InstName U2
SYMBOL Voltage 192 0 R0
WINDOW 3 8 55 Left 2
WINDOW 123 0 0 Left 0
WINDOW 39 0 0 Left 0
SYMATTR Value SINE(0 5 100)
SYMATTR InstName V5
SYMBOL res 800 816 R90
WINDOW 0 0 56 VBottom 2
WINDOW 3 32 56 VTop 2
SYMATTR InstName R13
SYMATTR Value 1k
SYMBOL res 1008 816 R90
WINDOW 0 0 56 VBottom 2
WINDOW 3 32 56 VTop 2
SYMATTR InstName R5
SYMATTR Value 1k
TEXT 840 720 Left 2 !.tran 100m
